Circuit: * C:\Users\jeffr\Documents\a4\git_repos\olmec\calculations\transmitter\mosfet_r.asc

WARNING: Node N002 is floating.

Model "soen_nmos": Oxide thickness thinner than recommended for a level 2 MOSFET.
Instance "m1": Length shorter than recommended for a level 2 MOSFET.
Direct Newton iteration for .op point succeeded.
.step res=10000
.step res=100000

Date: Thu Nov 19 09:27:16 2020
Total elapsed time: 0.075 seconds.

tnom = 27
temp = 27
method = modified trap
totiter = 5348
traniter = 5323
tranpoints = 1793
accept = 1608
rejected = 185
matrix size = 6
fillins = 0
solver = Normal
Matrix Compiler1: 182 bytes object code size  0.0/0.0/[0.0]
Matrix Compiler2: off  [0.0]/0.0/0.1

