Circuit: * C:\Users\jeffr\Documents\a4\git_repos\olmec\calculations\transmitter\mosfet_r_follower.asc

WARNING: Node N002 is floating.

Model "soen_nmos": Oxide thickness thinner than recommended for a level 2 MOSFET.
Instance "m1": Length shorter than recommended for a level 2 MOSFET.
Direct Newton iteration for .op point succeeded.

Date: Thu Nov 19 10:13:49 2020
Total elapsed time: 0.055 seconds.

tnom = 27
temp = 27
method = modified trap
totiter = 3981
traniter = 3956
tranpoints = 1461
accept = 1357
rejected = 104
matrix size = 9
fillins = 0
solver = Normal
Matrix Compiler1: 358 bytes object code size  0.1/0.0/[0.0]
Matrix Compiler2: 667 bytes object code size  0.1/0.1/[0.0]

