Circuit: * C:\Users\jeffr\Documents\a4\git_repos\olmec\calculations\transmitter\mosfet_rc.asc

WARNING: Node N001 is floating.

Model "soen_nmos": Oxide thickness thinner than recommended for a level 2 MOSFET.
Instance "m1": Length shorter than recommended for a level 2 MOSFET.
Direct Newton iteration for .op point succeeded.

Date: Thu Nov 19 13:38:13 2020
Total elapsed time: 0.058 seconds.

tnom = 27
temp = 27
method = modified trap
totiter = 4626
traniter = 4601
tranpoints = 1621
accept = 1479
rejected = 142
matrix size = 10
fillins = 0
solver = Normal
Matrix Compiler1: 328 bytes object code size  0.1/0.0/[0.0]
Matrix Compiler2: off  [0.0]/0.1/0.1

