Circuit: * C:\Users\jeffr\Documents\a4\git_repos\olmec\calculations\transmitter\mosfet_rc_2mos.asc

WARNING: Node N001 is floating.
WARNING: Node N002 is floating.

Model "soen_nmos": Oxide thickness thinner than recommended for a level 2 MOSFET.
Instance "m2": Length shorter than recommended for a level 2 MOSFET.
Instance "m1": Length shorter than recommended for a level 2 MOSFET.
Direct Newton iteration for .op point succeeded.
Heightened Def Con from 9.82866e-009 ++++++++++++++++to 9.92633e-009

Date: Thu Nov 19 13:34:00 2020
Total elapsed time: 0.055 seconds.

tnom = 27
temp = 27
method = modified trap
totiter = 6195
traniter = 6170
tranpoints = 1691
accept = 1404
rejected = 304
matrix size = 10
fillins = 0
solver = Normal
Matrix Compiler1: 480 bytes object code size  0.1/0.1/[0.0]
Matrix Compiler2: off  [0.1]/0.1/0.1

