Circuit: * C:\Users\jeffr\Documents\a4\olmec\calculations\transmitter\transmitter_mosfet.asc

WARNING: Node N010 is floating.
WARNING: Node NC_01 is floating.
WARNING: Node NC_02 is floating.
WARNING: Node N011 is floating.
WARNING: Node N012 is floating.

Model "soen_nmos": Oxide thickness thinner than recommended for a level 2 MOSFET.
Instance "m5": Length shorter than recommended for a level 2 MOSFET.
Instance "m4": Length shorter than recommended for a level 2 MOSFET.
Instance "m2": Length shorter than recommended for a level 2 MOSFET.
Instance "m3": Length shorter than recommended for a level 2 MOSFET.
Instance "m1": Length shorter than recommended for a level 2 MOSFET.
Direct Newton iteration for .op point succeeded.

Date: Tue Dec 15 14:59:20 2020
Total elapsed time: 0.113 seconds.

tnom = 27
temp = 27
method = modified trap
totiter = 3230
traniter = 3192
tranpoints = 1322
accept = 1241
rejected = 81
matrix size = 23
fillins = 12
solver = Normal
Matrix Compiler1:     111 opcodes  0.3/[0.1]/0.2
Matrix Compiler2: off
