Circuit: * C:\Users\jeffr\Documents\a4\git_repos\olmec\calculations\transmitter_01.asc

WARNING: Node N004 is floating.
WARNING: Node N007 is floating.
WARNING: Node N009 is floating.

Model "soen_nmos": Oxide thickness thinner than recommended for a level 2 MOSFET.
Instance "m3": Length shorter than recommended for a level 2 MOSFET.
Instance "m2": Length shorter than recommended for a level 2 MOSFET.
Instance "m1": Length shorter than recommended for a level 2 MOSFET.
Direct Newton iteration for .op point succeeded.

Date: Tue Nov 10 16:47:21 2020
Total elapsed time: 0.210 seconds.

tnom = 27
temp = 27
method = modified trap
totiter = 10011
traniter = 9986
tranpoints = 2812
accept = 2357
rejected = 455
matrix size = 18
fillins = 6
solver = Normal
Matrix Compiler1: 1.47 KB object code size  0.2/0.1/[0.1]
Matrix Compiler2: off  [0.1]/0.2/0.1

