Circuit: * C:\Users\jeffr\Documents\a4\git_repos\olmec\calculations\mosfet\mosfet_rc.asc

WARNING: Node N002 is floating.

Model "soen_nmos": Oxide thickness thinner than recommended for a level 2 MOSFET.
Instance "m1": Length shorter than recommended for a level 2 MOSFET.
Direct Newton iteration for .op point succeeded.

Date: Thu Nov 19 14:29:15 2020
Total elapsed time: 0.064 seconds.

tnom = 27
temp = 27
method = modified trap
totiter = 8364
traniter = 8339
tranpoints = 2403
accept = 2063
rejected = 340
matrix size = 7
fillins = 0
solver = Normal
Matrix Compiler1: 330 bytes object code size  0.1/0.0/[0.0]
Matrix Compiler2:      44 opcodes  0.0/[0.0]/0.1

