Circuit: * C:\Users\jeffr\Documents\a4\git_repos\olmec\calculations\mosfet\mosfet__rc__t_on.asc

WARNING: Node N002 is floating.

Model "soen_nmos": Oxide thickness thinner than recommended for a level 2 MOSFET.
Instance "m1": Length shorter than recommended for a level 2 MOSFET.
Direct Newton iteration for .op point succeeded.

Date: Thu Nov 19 14:34:51 2020
Total elapsed time: 0.055 seconds.

tnom = 27
temp = 27
method = modified trap
totiter = 5786
traniter = 5761
tranpoints = 1895
accept = 1679
rejected = 216
matrix size = 6
fillins = 0
solver = Normal
Matrix Compiler1: 182 bytes object code size  0.0/0.0/[0.0]
Matrix Compiler2: 408 bytes object code size  0.0/0.1/[0.0]

