Circuit: * C:\Users\jeffr\Documents\a4\git_repos\olmec\calculations\mosfet\mosfet__inverters.asc

WARNING: Node N003 is floating.
WARNING: Node N002 is floating.

Model "soen_nmos": Oxide thickness thinner than recommended for a level 2 MOSFET.
Instance "m6": Length shorter than recommended for a level 2 MOSFET.
Instance "m5": Length shorter than recommended for a level 2 MOSFET.
Direct Newton iteration for .op point succeeded.

Date: Thu Nov 19 16:30:14 2020
Total elapsed time: 0.072 seconds.

tnom = 27
temp = 27
method = modified trap
totiter = 7416
traniter = 7386
tranpoints = 2223
accept = 1912
rejected = 311
matrix size = 8
fillins = 0
solver = Normal
Matrix Compiler1: 362 bytes object code size  0.1/0.1/[0.0]
Matrix Compiler2: 628 bytes object code size  0.0/0.0/[0.0]

