Circuit: * C:\Users\jeffr\Documents\a4\olmec\calculations\led\led.asc

.OP point found by inspection.

Date: Tue Dec 15 13:54:01 2020
Total elapsed time: 0.081 seconds.

tnom = 27
temp = 27
method = modified trap
totiter = 2088
traniter = 2088
tranpoints = 1045
accept = 1045
rejected = 0
matrix size = 4
fillins = 0
solver = Normal
Matrix Compiler1: 100 bytes object code size  0.0/0.0/[0.0]
Matrix Compiler2:      21 opcodes  0.0/[0.0]/0.0

